Dados_Sistema_IEEE_30.m
%% Dados de entrada do sistema de transmissão IEEE 30 barras

%% Dados gerais do sistema

% base de tensão V = 1.0 kV; S = 100MVA

Sbase = 100; % MVA
Vbase = 1.0; % kV

K = (Vbase^2)/Sbase;

nbus = 30;


%% Dados de barras

% Tipos de barras:  1 - Barra Slack; 
%                   2 - Barra PV;
%                   3 - Barra PQ;

%          |Bus | Type | Vsp | theta | PGi | QGi | PLi    |   QLi   |  Qmin | Qmax | Shunt 
busdata = [   1     1       1.060     0      260.20    -16.10    0          0         0       0     0;     
              2     2       1.043     0      40.000    50.000   21.700     12.700     0       0     0;
              3     3       1.021     0      0         0        2.4000     1.2000     0       0     0;   
              4     3       1.012     0      0         0        7.6000     1.6000     0       0     0;
              5     2       1.010     0      0         37.000   94.200     19.000     0       0     0;
              6     3       1.010     0      0         0        0.0000     0.0000     0       0     0;
              7     3       1.002     0      0         0        22.800     10.900     0       0     0;
              8     2       1.010     0      0         37.300   30.000     30.000     0       0     0;
              9     3       1.051     0      0         0        0.0000     0.0000     0       0     0;
              10    3       1.045     0      0         0        5.8000     2.0000     0       0     19/Sbase;
              11    2       1.082     0      0         16.200   0.0000     0.0000     0       0     0;
              12    3       1.057     0      0         0        11.200     7.5000     0       0     0;
              13    2       1.071     0      0         10.60    0.0000     0.0000     0       0     0;
              14    3       1.042     0      0         0        6.2000     1.6000     0       0     0;
              15    3       1.038     0      0         0        8.2000     2.5000     0       0     0;
              16    3       1.045     0      0         0        3.5000     1.8000     0       0     0;
              17    3       1.040     0      0         0        9.0000     5.8000     0       0     0;
              18    3       1.028     0      0         0        3.2000     0.9000     0       0     0;
              19    3       1.026     0      0         0        9.5000     3.4000     0       0     0;
              20    3       1.030     0      0         0        2.2000     0.7000     0       0     0;
              21    3       1.033     0      0         0        17.500     11.200     0       0     0;
              22    3       1.033     0      0         0        0.0000     0.0000     0       0     0;
              23    3       1.027     0      0         0        3.2000     1.6000     0       0     0;
              24    3       1.021     0      0         0        8.7000     6.7000     0       0     4.3/Sbase;
              25    3       1.017     0      0         0        0.0000     0.0000     0       0     0;
              26    3       1.000     0      0         0        3.5000     2.3000     0       0     0;
              27    3       1.023     0      0         0        0.0000     0.0000     0       0     0;
              28    3       1.007     0      0         0        0.0000     0.0000     0       0     0;
              29    3       1.003     0      0         0        2.4000     0.9000     0       0     0;
              30    3       0.992     0      0         0        10.600     1.9000     0       0     0;
              ];
          
%% Dados de linhas

%         |  From |  To   |   R        |   X     |    B/2  |  X'mer  |   | Defasagem (°) |
%         |  Bus  | Bus   |  pu        |  pu     |    pu   | TAP (a) |   | Defasagem (°) |
linedata =  [1      2       1.92/100	5.75/100     5.28/200        1             0
             1      3       4.52/100	16.52/100    4.08/200        1             0             
             2      4       5.7/100	    17.37/100    3.68/200        1             0
             2      5       4.72/100	19.83/100    4.18/200        1             0
             2      6       5.81/100	17.63/100    3.74/200        1             0 
             3      4       1.32/100	3.790/100    0.84/200        1             0
             4      6       1.19/100	4.140/100    0.90/200        1             0
             4      12      0.000000    25.60/100    0.000000        1.0730        0
             5      7       4.6/100	    11.60/100    2.04/200        1             0
             6      7       2.67/100	8.200/100    1.70/200        1             0
             6      8       1.2/100	    4.200/100    0.90/200        1             0
             6      9       0.00	    20.80/100    0.000000        1.0225        0
             6      10      0.00000	    55.60/100    0.000000        1/0.969       0
             6      28      1.69/100	5.990/100    1.30/200        1             0
             8      28      6.36/100	20.00/100    4.28/200        1             0
             9      10      0.00000	    11.00/100    0.000000        1             0
             9      11      0.00000	    20.80/100    0.000000        1             0
             10     17      3.24/100	8.450/100    0.000000        1             0
             10     20      9.36/100	20.90/100    0.000000        1             0
             10     21      3.48/100	7.490/100    0.000000        1             0
             10     22      7.27/100	14.99/100    0.000000        1             0
             12     13      0.00/100	14.00/100    0.000000        1             0
             12     14      12.31/100	25.59/100    0.000000        1             0
             12     15      6.62/100    13.04/100    0.000000        1             0
             12     16      9.45/100	19.87/100    0.000000        1             0
             14     15      22.10/100	19.87/100    0.000000        1             0
             15     18      10.73/100	21.85/100    0.000000        1             0
             15     23      10.00/100	20.20/100    0.000000        1             0
             16     17      5.24/100	19.23/100    0.000000        1             0
             18     19      6.39/100	12.92/100    0.000000        1             0
             19     20      3.4/100	    6.800/100    0.000000        1             0
             21     22      1.16/100	2.360/100    0.000000        1             0
             22     24      11.5/100    17.90/100    0.000000        1             0
             23     24      13.2/100	27.00/100    0.000000        1             0
             24     25      18.85/100	32.92/100    0.000000        1             0
             25     26      25.44/100	39.00/100    0.000000        1             0
             25     27      10.93/100	20.87/100    0.000000        1             0
             27     29      21.98/100	41.53/100    0.000000        1             0
             27     30      32.02/100	60.27/100    0.000000        1             0
             28     27      0.00000	    39.60/100    0.000000        1/0.9680      0
             29     30      23.99/100	45.33/100    0.000000        1             0
             ];